Version 4
SHEET 1 880 680
WIRE 112 -320 32 -320
WIRE 240 -320 112 -320
WIRE 432 -320 320 -320
WIRE 528 -320 432 -320
WIRE 112 -288 112 -320
WIRE 432 -288 432 -320
WIRE 112 -176 112 -208
WIRE 432 -176 432 -208
WIRE -48 -96 -48 -320
WIRE 112 -96 -48 -96
WIRE 288 -96 112 -96
WIRE 432 -96 288 -96
WIRE 528 -96 432 -96
FLAG 528 -320 A
FLAG 528 -96 B
FLAG 288 -96 0
SYMBOL res -64 -336 M90
WINDOW 0 0 56 VBottom 2
WINDOW 3 32 56 VTop 2
SYMATTR InstName R1
SYMATTR Value 22K
SYMBOL res 96 -192 M180
WINDOW 0 36 76 Left 2
WINDOW 3 36 40 Left 2
SYMATTR InstName R2
SYMATTR Value 22K
SYMBOL res 336 -304 M270
WINDOW 0 32 56 VTop 2
WINDOW 3 0 56 VBottom 2
SYMATTR InstName R3
SYMATTR Value 11K
SYMBOL res 448 -304 M0
SYMATTR InstName R4
SYMATTR Value 22K
SYMBOL voltage 112 -192 R0
SYMATTR InstName Vb0
SYMATTR Value 5V
SYMBOL voltage 432 -192 R0
SYMATTR InstName Vb1
SYMATTR Value 5V
TEXT 136 -56 Left 2 !.op
